ipss.test.plugin.core/testData/ge/Sample18Bus.epc
# history file date Wed Jan 10 11:52:35 1996
# present file date Wed Jan 10 11:52:51 1996
title
LOAD FLOW SYSTEM FOR TRANSFER TESTING                                           
BASE CASE                                                                       
!
comments
!
solution parameters
tap    0    tcul  enabled/disabled
phas   0    ps    enabled/disabled
area   0    area  enabled/disabled
svd    0    svd   enabled/disabled
dctap  0    dc    enabled/disabled
ped    0    ped   enabled/disabled
jump    0.0005    jumper threshold
toler   0.1000    newton tolerance
sbase    100.0    system mva base
!
bus data  [   18]             ty  vsched   volt     angle   ar zone  vmax   vmin   date_in date_out pid L own
       1 "NORTH-01" 230.00  :  1 0.98968 0.985408  -5.07918  1    1 1.0397 0.9397   400101   391231   0 0   0
       2 "NORTH-02" 230.00  :  1 0.95865 0.946417 -12.90653  1    1 1.0086 0.9086   400101   391231   0 0   0
       3 "NORTH-03" 230.00  :  1 0.96750 0.957014 -12.90483  1    1 1.0175 0.9175   400101   391231   0 0   0
      11 "WEST--01" 230.00  :  1 0.97947 0.978697   6.30459  2    1 1.0295 0.9295   400101   391231   0 0   0
      12 "WEST--02" 230.00  :  1 0.90970 0.906542  -9.34693  2    1 0.9597 0.8597   400101   391231   0 0   0
      13 "WEST--03" 230.00  :  1 0.91290 0.909897  -9.32265  2    1 0.9629 0.8629   400101   391231   0 0   0
      14 "WEST--04" 500.00  :  1 0.92415 0.921826  -9.61880  2    1 0.9742 0.8741   400101   391231   0 0   0
      21 "SOUTH-01" 230.00  :  1 0.97936 0.977620 -13.74951  3    2 1.0294 0.9294   400101   391231   0 0   0
      22 "SOUTH-02" 230.00  :  1 0.98543 0.984279 -11.35392  3    2 1.0354 0.9354   400101   391231   0 0   0
      23 "SOUTH-03" 230.00  :  1 0.99563 0.995061  -9.14952  3    2 1.0456 0.9456   400101   391231   0 0   0
      24 "SOUTH-04" 500.00  :  1 0.98301 0.981750 -11.20285  3    2 1.0330 0.9330   400101   391231   0 0   0
      31 "EAST--01" 230.00  :  1 0.99765 0.997434 -11.37566  4    2 1.0476 0.9477   400101   391231   0 0   0
      32 "EAST--02" 230.00  :  1 0.99960 0.999176 -11.67402  4    2 1.0496 0.9496   400101   391231   0 0   0
      33 "EAST--03" 230.00  :  1 0.99978 0.999445 -10.94521  4    2 1.0498 0.9498   400101   391231   0 0   0
     101 "NORTH-G1"  16.00  :  0 1.00000 1.000000  -0.00000  1    1 1.0500 0.9500   400101   391231   0 0   0
     111 "WEST--G1"  16.00  :  2 1.00000 1.000000  11.18908  2    1 1.0500 0.9500   400101   391231   0 0   0
     231 "SOUTH-G1"  16.00  :  2 1.00000 1.000000  -4.34554  3    2 1.0500 0.9500   400101   391231   0 0   0
     311 "EAST--G1"  16.00  :  2 1.00000 1.000000  -6.58313  4    2 1.0500 0.9500   400101   391231   0 0   0
branch data  [   18]                                 ck  se  long_id_    st resist   react   charge   rate1  rate2  rate3  rate4 aloss  lngth 
      1 "NORTH-01" 230.00       2 "NORTH-02" 230.00 "1 "  1 "        " :  1 0.01000 0.05000  0.00000  600.0    0.0    0.0    0.0 0.000    1.0 /
 1    1 0.0000 0.000 0.000   400101   391231   0 0  0    0.0    0.0    0.0    0.0   0 0.000   0 0.000   0 0.000   0 0.000   0 0.000   0 0.000   0 0.000   0 0.000
      1 "NORTH-01" 230.00       3 "NORTH-03" 230.00 "1 "  1 "        " :  1 0.01000 0.05000  0.00000  600.0    0.0    0.0    0.0 0.000    1.0 /
 1    1 0.0000 0.000 0.000   400101   391231   0 0  0    0.0    0.0    0.0    0.0   0 0.000   0 0.000   0 0.000   0 0.000   0 0.000   0 0.000   0 0.000   0 0.000
      2 "NORTH-02" 230.00       3 "NORTH-03" 230.00 "1 "  1 "        " :  1 0.01000 0.05000  0.00000  600.0    0.0    0.0    0.0 0.000    1.0 /
 1    1 0.0000 0.000 0.000   400101   391231   0 0  0    0.0    0.0    0.0    0.0   0 0.000   0 0.000   0 0.000   0 0.000   0 0.000   0 0.000   0 0.000   0 0.000
      2 "NORTH-02" 230.00      12 "WEST--02" 230.00 "1 "  1 "        " :  1 0.02000 0.20000  0.10000  600.0    0.0    0.0    0.0 0.000    1.0 /
 1    1 0.0000 0.000 0.000   400101   391231   0 0  0    0.0    0.0    0.0    0.0   0 0.000   0 0.000   0 0.000   0 0.000   0 0.000   0 0.000   0 0.000   0 0.000
      2 "NORTH-02" 230.00      13 "WEST--03" 230.00 "1 "  1 "        " :  1 0.03000 0.30000  0.15000  600.0    0.0    0.0    0.0 0.000    1.0 /
 1    1 0.0000 0.000 0.000   400101   391231   0 0  0    0.0    0.0    0.0    0.0   0 0.000   0 0.000   0 0.000   0 0.000   0 0.000   0 0.000   0 0.000   0 0.000
      3 "NORTH-03" 230.00      21 "SOUTH-01" 230.00 "1 "  1 "        " :  1 0.02000 0.20000  0.10000  600.0    0.0    0.0    0.0 0.000    1.0 /
 1    1 0.0000 0.000 0.000   400101   391231   0 0  0    0.0    0.0    0.0    0.0   0 0.000   0 0.000   0 0.000   0 0.000   0 0.000   0 0.000   0 0.000   0 0.000
      3 "NORTH-03" 230.00      31 "EAST--01" 230.00 "1 "  1 "        " :  1 0.05000 0.50000  0.25000  600.0    0.0    0.0    0.0 0.000    1.0 /
 1    1 0.0000 0.000 0.000   400101   391231   0 0  0    0.0    0.0    0.0    0.0   0 0.000   0 0.000   0 0.000   0 0.000   0 0.000   0 0.000   0 0.000   0 0.000
     11 "WEST--01" 230.00      12 "WEST--02" 230.00 "1 "  1 "        " :  1 0.01000 0.05000  0.00000  600.0    0.0    0.0    0.0 0.000    1.0 /
 2    1 0.0000 0.000 0.000   400101   391231   0 0  0    0.0    0.0    0.0    0.0   0 0.000   0 0.000   0 0.000   0 0.000   0 0.000   0 0.000   0 0.000   0 0.000
     11 "WEST--01" 230.00      13 "WEST--03" 230.00 "1 "  1 "        " :  1 0.01000 0.05000  0.00000  600.0    0.0    0.0    0.0 0.000    1.0 /
 2    1 0.0000 0.000 0.000   400101   391231   0 0  0    0.0    0.0    0.0    0.0   0 0.000   0 0.000   0 0.000   0 0.000   0 0.000   0 0.000   0 0.000   0 0.000
     12 "WEST--02" 230.00      13 "WEST--03" 230.00 "1 "  1 "        " :  1 0.01000 0.05000  0.00000  600.0    0.0    0.0    0.0 0.000    1.0 /
 2    1 0.0000 0.000 0.000   400101   391231   0 0  0    0.0    0.0    0.0    0.0   0 0.000   0 0.000   0 0.000   0 0.000   0 0.000   0 0.000   0 0.000   0 0.000
     14 "WEST--04" 500.00      24 "SOUTH-04" 500.00 "1 "  1 "        " :  1 0.06000 0.40000  0.20000 2000.0    0.0    0.0    0.0 0.000    1.0 /
 2    1 0.0000 0.000 0.000   400101   391231   0 0  0    0.0    0.0    0.0    0.0   0 0.000   0 0.000   0 0.000   0 0.000   0 0.000   0 0.000   0 0.000   0 0.000
     21 "SOUTH-01" 230.00      22 "SOUTH-02" 230.00 "1 "  1 "        " :  1 0.01000 0.05000  0.00000  600.0    0.0    0.0    0.0 0.000    1.0 /
 3    2 0.0000 0.000 0.000   400101   391231   0 0  0    0.0    0.0    0.0    0.0   0 0.000   0 0.000   0 0.000   0 0.000   0 0.000   0 0.000   0 0.000   0 0.000
     21 "SOUTH-01" 230.00      23 "SOUTH-03" 230.00 "1 "  1 "        " :  1 0.01000 0.05000  0.00000  600.0    0.0    0.0    0.0 0.000    1.0 /
 3    2 0.0000 0.000 0.000   400101   391231   0 0  0    0.0    0.0    0.0    0.0   0 0.000   0 0.000   0 0.000   0 0.000   0 0.000   0 0.000   0 0.000   0 0.000
     21 "SOUTH-01" 230.00      32 "EAST--02" 230.00 "1 "  1 "        " :  1 0.04000 0.40000  0.20000  600.0    0.0    0.0    0.0 0.000    1.0 /
 3    2 0.0000 0.000 0.000   400101   391231   0 0  0    0.0    0.0    0.0    0.0   0 0.000   0 0.000   0 0.000   0 0.000   0 0.000   0 0.000   0 0.000   0 0.000
     22 "SOUTH-02" 230.00      23 "SOUTH-03" 230.00 "1 "  1 "        " :  1 0.01000 0.05000  0.00000  600.0    0.0    0.0    0.0 0.000    1.0 /
 3    2 0.0000 0.000 0.000   400101   391231   0 0  0    0.0    0.0    0.0    0.0   0 0.000   0 0.000   0 0.000   0 0.000   0 0.000   0 0.000   0 0.000   0 0.000
     23 "SOUTH-03" 230.00      33 "EAST--03" 230.00 "1 "  1 "        " :  1 0.02000 0.20000  0.10000  600.0    0.0    0.0    0.0 0.000    1.0 /
 3    2 0.0000 0.000 0.000   400101   391231   0 0  0    0.0    0.0    0.0    0.0   0 0.000   0 0.000   0 0.000   0 0.000   0 0.000   0 0.000   0 0.000   0 0.000
     31 "EAST--01" 230.00      32 "EAST--02" 230.00 "1 "  1 "        " :  1 0.01000 0.05000  0.00000  600.0    0.0    0.0    0.0 0.000    1.0 /
 4    2 0.0000 0.000 0.000   400101   391231   0 0  0    0.0    0.0    0.0    0.0   0 0.000   0 0.000   0 0.000   0 0.000   0 0.000   0 0.000   0 0.000   0 0.000
     31 "EAST--01" 230.00      33 "EAST--03" 230.00 "1 "  1 "        " :  1 0.01000 0.05000  0.00000  600.0    0.0    0.0    0.0 0.000    1.0 /
 4    2 0.0000 0.000 0.000   400101   391231   0 0  0    0.0    0.0    0.0    0.0   0 0.000   0 0.000   0 0.000   0 0.000   0 0.000   0 0.000   0 0.000   0 0.000
transformer data  [   6]                               ck   long_id_    st ty --no---    reg_name          zt         int                           tert               ar zone  tbase   ps_r    ps_x    pt_r    pt_x    ts_r    ts_x
       1 "NORTH-01" 230.00      101 "NORTH-G1"  16.00 "1 " "        " :  1  1   -1      "        " 000.00   0   -1      "        " 000.00   -1      "        " 000.00   1    1  600.0 0.00000 0.10000 0.00000 0.00000 0.00000 0.00000 /
230.00  16.00   0.00    0.0 0.00000 0.00000  600.0    0.0    0.0    0.0 0.000 1.5000 0.5100 1.5000 0.5100 0.00000 1.0000 1.0000 1.0000 1.0000   400101   391231   0 0     0.0    0.0    0.0    0.0 /
  0 0.000   0 0.000   0 0.000   0 0.000   0 0.000   0 0.000   0 0.000   0 0.000
      11 "WEST--01" 230.00      111 "WEST--G1"  16.00 "1 " "        " :  1  1   -1      "        " 000.00   0   -1      "        " 000.00   -1      "        " 000.00   2    1 1200.0 0.00000 0.10000 0.00000 0.00000 0.00000 0.00000 /
230.00  16.00   0.00    0.0 0.00000 0.00000 1200.0    0.0    0.0    0.0 0.000 1.5000 0.5100 1.5000 0.5100 0.00000 1.0000 1.0000 1.0000 1.0000   400101   391231   0 0     0.0    0.0    0.0    0.0 /
  0 0.000   0 0.000   0 0.000   0 0.000   0 0.000   0 0.000   0 0.000   0 0.000
      13 "WEST--03" 230.00       14 "WEST--04" 500.00 "1 " "        " :  1  1        13 "WEST--03" 230.00   0   -1      "        " 000.00   -1      "        " 000.00   2    1  100.0 0.01000 0.05000 0.00000 0.00000 0.00000 0.00000 /
230.00 500.00   0.00    0.0 0.00000 0.00000  100.0    0.0    0.0    0.0 0.000 1.5000 0.5100 1.5000 0.5100 0.00000 1.0000 1.0000 1.0000 1.0000   400101   391231   0 0     0.0    0.0    0.0    0.0 /
  0 0.000   0 0.000   0 0.000   0 0.000   0 0.000   0 0.000   0 0.000   0 0.000
      22 "SOUTH-02" 230.00       24 "SOUTH-04" 500.00 "1 " "        " :  1  1        22 "SOUTH-02" 230.00   0   -1      "        " 000.00   -1      "        " 000.00   3    2  100.0 0.01000 0.05000 0.00000 0.00000 0.00000 0.00000 /
230.00 500.00   0.00    0.0 0.00000 0.00000  100.0    0.0    0.0    0.0 0.000 1.5000 0.5100 1.5000 0.5100 0.00000 1.0000 1.0000 1.0000 1.0000   400101   391231   0 0     0.0    0.0    0.0    0.0 /
  0 0.000   0 0.000   0 0.000   0 0.000   0 0.000   0 0.000   0 0.000   0 0.000
      23 "SOUTH-03" 230.00      231 "SOUTH-G1"  16.00 "1 " "        " :  1  1   -1      "        " 000.00   0   -1      "        " 000.00   -1      "        " 000.00   3    2  600.0 0.00000 0.10000 0.00000 0.00000 0.00000 0.00000 /
230.00  16.00   0.00    0.0 0.00000 0.00000  600.0    0.0    0.0    0.0 0.000 1.5000 0.5100 1.5000 0.5100 0.00000 1.0000 1.0000 1.0000 1.0000   400101   391231   0 0     0.0    0.0    0.0    0.0 /
  0 0.000   0 0.000   0 0.000   0 0.000   0 0.000   0 0.000   0 0.000   0 0.000
      31 "EAST--01" 230.00      311 "EAST--G1"  16.00 "1 " "        " :  1  1   -1      "        " 000.00   0   -1      "        " 000.00   -1      "        " 000.00   4    2 1200.0 0.00000 0.10000 0.00000 0.00000 0.00000 0.00000 /
230.00  16.00   0.00    0.0 0.00000 0.00000 1200.0    0.0    0.0    0.0 0.000 1.5000 0.5100 1.5000 0.5100 0.00000 1.0000 1.0000 1.0000 1.0000   400101   391231   0 0     0.0    0.0    0.0    0.0 /
  0 0.000   0 0.000   0 0.000   0 0.000   0 0.000   0 0.000   0 0.000   0 0.000
generator data  [   4]     id   long_id_    st ---no--     reg_name       prf  qrf  ar zone   pgen   pmax   pmin   qgen   qmax   qmin   mbase cmp_r cmp_x gen_r gen_x           hbus                    tbus           date_in date_out pid N
    101 "NORTH-G1"  16.00 "h1" "        " :  1     101 "NORTH-G1"  16.00  1.00 0.50  1    1  523.44  550.0   0.0  110.8  999.0 -999.0  750.00 0.000 0.872 0.000 0.200  -1      "       " 0.0   -1      "       " 0.0    400101   391231   0 0 /
 0.0000 0.0000 0.0000   0 0.000   0 0.000   0 0.000   0 0.000   0 0.000   0 0.000   0 0.000   0 0.000
    111 "WEST--G1"  16.00 "1 " "        " :  1     111 "WEST--G1"  16.00  1.00 1.00  2    1 1000.00 1200.0   0.0  298.3  500.0 -500.0 1200.00 0.000 1.836 0.000 0.200  -1      "       " 0.0   -1      "       " 0.0    400101   391231   0 0 /
 0.0000 0.0000 0.0000   0 0.000   0 0.000   0 0.000   0 0.000   0 0.000   0 0.000   0 0.000   0 0.000
    231 "SOUTH-G1"  16.00 "1 " "        " :  1     231 "SOUTH-G1"  16.00  1.00 1.00  3    2  500.00  600.0   0.0   50.6  250.0 -250.0  600.00 0.000 0.446 0.005 0.200  -1      "       " 0.0   -1      "       " 0.0    400101   391231   0 0 /
 0.0000 0.0000 0.0000   0 0.000   0 0.000   0 0.000   0 0.000   0 0.000   0 0.000   0 0.000   0 0.000
    311 "EAST--G1"  16.00 "1 " "        " :  1     311 "EAST--G1"  16.00  1.00 1.00  4    2 1000.00 1200.0   0.0   72.6  500.0 -500.0 1200.00 0.000 0.247 0.005 0.200  -1      "       " 0.0   -1      "       " 0.0    400101   391231   0 0 /
 0.0000 0.0000 0.0000   0 0.000   0 0.000   0 0.000   0 0.000   0 0.000   0 0.000   0 0.000   0 0.000
load data  [   7]           id   long_id_     st      mw      mvar    mw_i    mvar_i  mw_z      mvar_z ar zone  date_in date_out pid N own
       2 "NORTH-02" 230.00 "1 " "        "  :  1    0.000    0.000    0.000    0.000  334.932    0.000  1    1   400101   391231   0 0   0
       3 "NORTH-03" 230.00 "1 " "        "  :  1    0.000    0.000    0.000    0.000  272.963    0.000  1    1   400101   391231   0 0   0
      12 "WEST--02" 230.00 "1 " "        "  :  1    0.000    0.000    0.000    0.000  547.561    0.000  2    1   400101   391231   0 0   0
      13 "WEST--03" 230.00 "1 " "        "  :  1    0.000    0.000    0.000    0.000  543.530    0.000  2    1   400101   391231   0 0   0
      21 "SOUTH-01" 230.00 "1 " "        "  :  1    0.000    0.000    0.000    0.000  261.577    0.000  3    2   400101   391231   0 0   0
      23 "SOUTH-03" 230.00 "1 " "        "  :  1    0.000    0.000    0.000    0.000  252.488    0.000  3    2   400101   391231   0 0   0
      31 "EAST--01" 230.00 "1 " "        "  :  1    0.000    0.000    0.000    0.000 1005.150    0.000  4    2   400101   391231   0 0   0
shunt data  [   0]          id                               ck  se  long_id_     st ar zone    pu_mw  pu_mvar  date_in date_out pid N own part1 own part2 own part3 own part4
svd data  [  0]             id   long_id_    st ty --no---     reg_name       ar zone      g      b  min_c  max_c  vband   bmin   bmax  date_in date_out pid N own part1 own part2 own part3 own part4
area data  [ 4]                            swing  desired    tol      pnet     qnet
    1 "AREA 1                          "     101      0.0      5.0    -40.9     -8.8
    2 "AREA 2                          "     111      0.0      5.0     45.1    -47.5
    3 "AREA 3                          "     231      0.0      5.0     -4.0     15.7
    4 "AREA 4                          "     311      0.0      5.0     -0.2     40.7
zone data  [   2]                            pnet     qnet
    1 "Zone1                           "    4.157  -56.348
    2 "Zone2                           "   -4.157   56.348
interface data  [   0]                      pnet     qnet   -rate1- -rate2- -rate3- -rate4- 
interface branch data  [    0]                       ck      -i_no-  part_fac  
dc bus data  [ 0]             ty ar  zone   vsched     dc_volt  date_in date_out pid own
dc line data  [ 0]                                    ck   long_id_     st ar zone   resist   react    capac   rate1  rate2  rate3  rate4  len  aloss    date_in date_out PID N  rate5  rate6  rate7  rate8
dc converter data  [ 0]                               id   long_id_    st ty md nb fg  --no---           reg   ar zone  date_in date_out
z table data  [ 0] 
gcd data  [   0]                      
transaction data  [    0]                     to area    name                              schedule
owner data  [    0]    owner name               s name       net_mw   net_mvar     sch_mw   sch_mvar  ar
motor data  [    0]          
line data  [    0]                                 ck  se  long_id_    st resist   react   charge   rate1  rate2  rate3  rate4 aloss  lngth 
end
#
#
#
#This file was written by General Electric Company
#  PSLF load flow program on Wed Jan 10 11:52:51 1996
#  using the following solution parameters:
#
#  TCUL tap ratio adjustment off
#
#  Automatic SVD control off
#
#  AREA interchange control off
#
#  Automatic phase shifter adjustment off
#
#  DC converter control off
#
#  GCD control off
#
#  Jumper Threshold Impedance   0.0005
#
#  Newton Solution Tolerance    0.1000
